<?xml version="1.0" encoding="UTF-8"?>

<!-- generated on 2023-04-09 00:13:28 by Eclipse SUMO netedit Version 1.16.0
<configuration xmlns:xsi="http://www.w3.org/2001/XMLSchema-instance" xsi:noNamespaceSchemaLocation="http://sumo.dlr.de/xsd/netconvertConfiguration.xsd">

    <input>
        <sumo-net-file value="D:\trash-downloads\SUMO Simulator\examples\pp2\sumo_configs\pp2.net.xml"/>
    </input>

    <output>
        <output-file value="D:\trash-downloads\SUMO Simulator\examples\pp2\sumo_configs\pp2.net.xml"/>
    </output>

    <processing>
        <offset.disable-normalization value="true"/>
    </processing>

    <junctions>
        <no-turnarounds value="true"/>
    </junctions>

    <netedit>
        <new-network value="false"/>
    </netedit>

</configuration>
-->

<net version="1.16" junctionCornerDetail="5" limitTurnSpeed="5.50" xmlns:xsi="http://www.w3.org/2001/XMLSchema-instance" xsi:noNamespaceSchemaLocation="http://sumo.dlr.de/xsd/net_file.xsd">

    <location netOffset="0.00,0.00" convBoundary="29.71,-128.93,430.51,197.74" origBoundary="10000000000.00,10000000000.00,-10000000000.00,-10000000000.00" projParameter="!"/>

    <edge id=":J2_0" function="internal">
        <lane id=":J2_0_0" index="0" speed="6.54" length="9.09" shape="227.14,45.74 226.79,43.28 225.73,41.52 223.97,40.45 221.51,40.09"/>
    </edge>
    <edge id=":J2_1" function="internal">
        <lane id=":J2_1_0" index="0" speed="13.89" length="14.44" shape="227.14,45.74 227.12,31.30"/>
    </edge>
    <edge id=":J2_2" function="internal">
        <lane id=":J2_2_0" index="0" speed="7.99" length="14.22" shape="227.14,45.74 227.69,41.88 229.35,39.13 232.11,37.50 235.97,36.97"/>
    </edge>
    <edge id=":J2_3" function="internal">
        <lane id=":J2_3_0" index="0" speed="6.49" length="9.03" shape="235.95,40.17 233.49,40.51 231.74,41.55 230.69,43.29 230.34,45.74"/>
    </edge>
    <edge id=":J2_4" function="internal">
        <lane id=":J2_4_0" index="0" speed="13.89" length="14.44" shape="235.95,40.17 221.51,40.09"/>
    </edge>
    <edge id=":J2_5" function="internal">
        <lane id=":J2_5_0" index="0" speed="8.04" length="4.07" shape="235.95,40.17 232.10,39.59 231.95,39.51"/>
    </edge>
    <edge id=":J2_12" function="internal">
        <lane id=":J2_12_0" index="0" speed="8.04" length="10.17" shape="231.95,39.51 229.34,37.92 227.68,35.16 227.12,31.30"/>
    </edge>
    <edge id=":J2_6" function="internal">
        <lane id=":J2_6_0" index="0" speed="6.56" length="9.12" shape="230.32,31.29 230.68,33.76 231.74,35.53 233.50,36.60 235.97,36.97"/>
    </edge>
    <edge id=":J2_7" function="internal">
        <lane id=":J2_7_0" index="0" speed="13.89" length="14.45" shape="230.32,31.29 230.34,45.74"/>
    </edge>
    <edge id=":J2_8" function="internal">
        <lane id=":J2_8_0" index="0" speed="7.99" length="14.22" shape="230.32,31.29 229.78,35.16 228.13,37.91 225.37,39.55 221.51,40.09"/>
    </edge>
    <edge id=":J2_9" function="internal">
        <lane id=":J2_9_0" index="0" speed="6.49" length="9.03" shape="221.52,36.89 223.98,36.55 225.73,35.51 226.77,33.76 227.12,31.30"/>
    </edge>
    <edge id=":J2_10" function="internal">
        <lane id=":J2_10_0" index="0" speed="13.89" length="14.45" shape="221.52,36.89 235.97,36.97"/>
    </edge>
    <edge id=":J2_11" function="internal">
        <lane id=":J2_11_0" index="0" speed="8.03" length="4.08" shape="221.52,36.89 225.38,37.46 225.54,37.55"/>
    </edge>
    <edge id=":J2_13" function="internal">
        <lane id=":J2_13_0" index="0" speed="8.03" length="10.15" shape="225.54,37.55 228.13,39.12 229.79,41.89 230.34,45.74"/>
    </edge>

    <edge id="-E0" from="J2" to="J1" priority="-1">
        <lane id="-E0_0" index="0" speed="13.89" length="500" shape="221.51,40.09 29.71,39.21"/>
    </edge>
    <edge id="-E1" from="J3" to="J2" priority="-1">
        <lane id="-E1_0" index="0" speed="13.89" length="500" shape="430.50,41.50 235.95,40.17"/>
    </edge>
    <edge id="-E2" from="J4" to="J2" priority="-1">
        <lane id="-E2_0" index="0" speed="13.89" length="500" shape="229.88,-128.94 230.32,31.29"/>
    </edge>
    <edge id="-E3" from="J5" to="J2" priority="-1">
        <lane id="-E3_0" index="0" speed="13.89" length="500" shape="227.14,197.74 227.14,45.74"/>
    </edge>
    <edge id="E0" from="J1" to="J2" priority="-1">
        <lane id="E0_0" index="0" speed="13.89" length="500" shape="29.72,36.01 221.52,36.89"/>
    </edge>
    <edge id="E1" from="J2" to="J3" priority="-1">
        <lane id="E1_0" index="0" speed="13.89" length="500" shape="235.97,36.97 430.52,38.30"/>
    </edge>
    <edge id="E2" from="J2" to="J4" priority="-1">
        <lane id="E2_0" index="0" speed="13.89" length="500" shape="227.12,31.30 226.68,-128.93"/>
    </edge>
    <edge id="E3" from="J2" to="J5" priority="-1">
        <lane id="E3_0" index="0" speed="13.89" length="500" shape="230.34,45.74 230.34,197.74"/>
    </edge>

    <junction id="J1" type="dead_end" x="29.71" y="37.61" incLanes="-E0_0" intLanes="" shape="29.71,37.61 29.70,40.81 29.71,37.61"/>
    <junction id="J2" type="priority" x="228.74" y="38.52" incLanes="-E3_0 -E1_0 -E2_0 E0_0" intLanes=":J2_0_0 :J2_1_0 :J2_2_0 :J2_3_0 :J2_4_0 :J2_12_0 :J2_6_0 :J2_7_0 :J2_8_0 :J2_9_0 :J2_10_0 :J2_13_0" shape="225.54,45.74 231.94,45.74 232.38,43.53 232.94,42.75 233.72,42.20 234.72,41.87 235.94,41.77 235.98,35.37 233.73,34.91 232.94,34.34 232.38,33.55 232.03,32.53 231.92,31.29 225.52,31.31 225.08,33.53 224.53,34.30 223.75,34.86 222.75,35.18 221.53,35.29 221.50,41.69 223.74,42.15 224.53,42.71 225.09,43.50 225.43,44.51">
        <request index="0"  response="000000010000" foes="000100010000" cont="0"/>
        <request index="1"  response="111000110000" foes="111100110000" cont="0"/>
        <request index="2"  response="110011110000" foes="110111110000" cont="0"/>
        <request index="3"  response="000000000000" foes="100010000000" cont="0"/>
        <request index="4"  response="000000000000" foes="100110000111" cont="0"/>
        <request index="5"  response="111000000000" foes="111110000110" cont="1"/>
        <request index="6"  response="010000000000" foes="010000000100" cont="0"/>
        <request index="7"  response="110000111000" foes="110000111100" cont="0"/>
        <request index="8"  response="110000110111" foes="110000110111" cont="0"/>
        <request index="9"  response="000000000000" foes="000000100010" cont="0"/>
        <request index="10" response="000000000000" foes="000111100110" cont="0"/>
        <request index="11" response="000000011000" foes="000110111110" cont="1"/>
    </junction>
    <junction id="J3" type="dead_end" x="430.51" y="39.90" incLanes="E1_0" intLanes="" shape="430.51,39.90 430.53,36.70 430.51,39.90"/>
    <junction id="J4" type="dead_end" x="228.28" y="-128.93" incLanes="E2_0" intLanes="" shape="228.28,-128.93 225.08,-128.92 228.28,-128.93"/>
    <junction id="J5" type="dead_end" x="228.74" y="197.74" incLanes="E3_0" intLanes="" shape="228.74,197.74 231.94,197.74 228.74,197.74"/>

    <junction id=":J2_12_0" type="internal" x="231.95" y="39.51" incLanes=":J2_5_0 E0_0" intLanes=":J2_1_0 :J2_2_0 :J2_7_0 :J2_8_0 :J2_9_0 :J2_10_0"/>
    <junction id=":J2_13_0" type="internal" x="225.54" y="37.55" incLanes=":J2_11_0 -E1_0" intLanes=":J2_1_0 :J2_2_0 :J2_3_0 :J2_4_0 :J2_7_0 :J2_8_0"/>

    <connection from="-E1" to="E3" fromLane="0" toLane="0" via=":J2_3_0" dir="r" state="M"/>
    <connection from="-E1" to="-E0" fromLane="0" toLane="0" via=":J2_4_0" dir="s" state="M"/>
    <connection from="-E1" to="E2" fromLane="0" toLane="0" via=":J2_5_0" dir="l" state="m"/>
    <connection from="-E2" to="E1" fromLane="0" toLane="0" via=":J2_6_0" dir="r" state="m"/>
    <connection from="-E2" to="E3" fromLane="0" toLane="0" via=":J2_7_0" dir="s" state="m"/>
    <connection from="-E2" to="-E0" fromLane="0" toLane="0" via=":J2_8_0" dir="l" state="m"/>
    <connection from="-E3" to="-E0" fromLane="0" toLane="0" via=":J2_0_0" dir="r" state="m"/>
    <connection from="-E3" to="E2" fromLane="0" toLane="0" via=":J2_1_0" dir="s" state="m"/>
    <connection from="-E3" to="E1" fromLane="0" toLane="0" via=":J2_2_0" dir="l" state="m"/>
    <connection from="E0" to="E2" fromLane="0" toLane="0" via=":J2_9_0" dir="r" state="M"/>
    <connection from="E0" to="E1" fromLane="0" toLane="0" via=":J2_10_0" dir="s" state="M"/>
    <connection from="E0" to="E3" fromLane="0" toLane="0" via=":J2_11_0" dir="l" state="m"/>

    <connection from=":J2_0" to="-E0" fromLane="0" toLane="0" dir="r" state="M"/>
    <connection from=":J2_1" to="E2" fromLane="0" toLane="0" dir="s" state="M"/>
    <connection from=":J2_2" to="E1" fromLane="0" toLane="0" dir="l" state="M"/>
    <connection from=":J2_3" to="E3" fromLane="0" toLane="0" dir="r" state="M"/>
    <connection from=":J2_4" to="-E0" fromLane="0" toLane="0" dir="s" state="M"/>
    <connection from=":J2_5" to="E2" fromLane="0" toLane="0" via=":J2_12_0" dir="l" state="m"/>
    <connection from=":J2_12" to="E2" fromLane="0" toLane="0" dir="l" state="M"/>
    <connection from=":J2_6" to="E1" fromLane="0" toLane="0" dir="r" state="M"/>
    <connection from=":J2_7" to="E3" fromLane="0" toLane="0" dir="s" state="M"/>
    <connection from=":J2_8" to="-E0" fromLane="0" toLane="0" dir="l" state="M"/>
    <connection from=":J2_9" to="E2" fromLane="0" toLane="0" dir="r" state="M"/>
    <connection from=":J2_10" to="E1" fromLane="0" toLane="0" dir="s" state="M"/>
    <connection from=":J2_11" to="E3" fromLane="0" toLane="0" via=":J2_13_0" dir="l" state="m"/>
    <connection from=":J2_13" to="E3" fromLane="0" toLane="0" dir="l" state="M"/>

</net>
